FoamFile
{
    version     2.0;
    format      ascii;
    class       dictionary;
    location    "system";
    object      blockMeshDict;
}

// Domain: 73mm x 30mm x 50mm (matching paper)
// Grid spacing: 0.5mm (coarsened from paper's 0.25mm for computational feasibility)
// Total cells: 146 x 60 x 100 = 876,000

convertToMeters 0.001; // All dimensions in mm

vertices
(
    (0    0    0)     // 0
    (73   0    0)     // 1
    (73   30   0)     // 2
    (0    30   0)     // 3
    (0    0    50)    // 4
    (73   0    50)    // 5
    (73   30   50)    // 6
    (0    30   50)    // 7
);

blocks
(
    hex (0 1 2 3 4 5 6 7) (146 60 100) simpleGrading (1 1 1)
);

edges
(
);

boundary
(
    inlet
    {
        type patch;
        faces
        (
            (0 4 7 3)
        );
    }
    outlet
    {
        type patch;
        faces
        (
            (1 2 6 5)
        );
    }
    bottomWall
    {
        type wall;
        faces
        (
            (0 1 2 3)
        );
    }
    topWall
    {
        type wall;
        faces
        (
            (4 5 6 7)
        );
    }
    sideWalls
    {
        type wall;
        faces
        (
            (0 1 5 4)
            (3 2 6 7)
        );
    }
);

mergePatchPairs
(
);
