FoamFile
{
    version     2.0;
    format      ascii;
    class       dictionary;
    location    "system";
    object      controlDict;
}

application     reactingFoam;

startFrom       startTime;
startTime       0;
stopAt          endTime;
endTime         0.002;  // 2 ms as in paper

deltaT          1e-7;   // Initial timestep

writeControl    adjustableRunTime;
writeInterval   0.0002; // Write every 0.2 ms

purgeWrite      0;

writeFormat     binary;
writePrecision  8;
writeCompression off;

timeFormat      general;
timePrecision   8;

runTimeModifiable true;

adjustTimeStep  yes;
maxCo           0.5;
maxDeltaT       1e-6;

functions
{
    fieldAverage1
    {
        type            fieldAverage;
        libs            ("libfieldFunctionObjects.so");
        writeControl    writeTime;
        fields
        (
            T
            {
                mean        on;
                prime2Mean  on;
                base        time;
            }
            p
            {
                mean        on;
                prime2Mean  off;
                base        time;
            }
        );
    }

    totalHeatRelease
    {
        type            volFieldValue;
        libs            ("libfieldFunctionObjects.so");
        writeControl    timeStep;
        writeInterval   100;
        log             true;
        writeFields     false;
        regionType      all;
        operation       volIntegrate;
        fields          (Qdot);
    }
}
