FoamFile
{
    version     2.0;
    format      ascii;
    class       dictionary;
    location    "system";
    object      fvSchemes;
}

ddtSchemes
{
    default         Euler;
}

gradSchemes
{
    default         Gauss linear;
}

divSchemes
{
    default         none;
    div(phi,U)      Gauss linearUpwind grad(U);
    div(phi,K)      Gauss linearUpwind default;
    div(phi,h)      Gauss linearUpwind default;
    div(phi,Yi_h)   Gauss linearUpwind default;
    div(phi,k)      Gauss linearUpwind default;
    div(phi,epsilon) Gauss linearUpwind default;
    div(((rho*nuEff)*dev2(T(grad(U))))) Gauss linear;
}

laplacianSchemes
{
    default         Gauss linear corrected;
}

interpolationSchemes
{
    default         linear;
}

snGradSchemes
{
    default         corrected;
}
